Version 4
SHEET 1 880 680
WIRE 512 -160 352 -160
WIRE 608 -96 560 -96
WIRE 512 -48 512 -160
WIRE 560 -48 560 -96
WIRE 560 -48 512 -48
WIRE 608 0 608 -16
WIRE 608 0 512 0
WIRE 352 32 352 -160
WIRE 352 32 256 32
WIRE 512 32 512 0
WIRE -32 48 -96 48
WIRE -96 64 -96 48
WIRE 48 144 48 48
WIRE 64 144 48 144
WIRE 256 144 256 32
WIRE -96 176 -96 144
WIRE 352 208 256 208
WIRE 352 224 352 208
WIRE 64 240 16 240
WIRE 16 304 16 240
WIRE 352 304 304 304
WIRE 304 336 304 304
FLAG -96 176 0
FLAG 512 32 0
FLAG 304 336 0
FLAG 16 304 0
SYMBOL Optos\\4N25 160 208 R0
SYMATTR InstName U1
SYMBOL voltage -96 48 R0
WINDOW 123 0 0 Left 2
WINDOW 39 0 0 Left 2
SYMATTR InstName V1
SYMATTR Value PULSE(0 3.3 0 0 0 3ms 10ms)
SYMBOL res 336 208 R0
SYMATTR InstName R1
SYMATTR Value 4.7K
SYMBOL res 64 32 R90
WINDOW 0 0 56 VBottom 2
WINDOW 3 32 56 VTop 2
SYMATTR InstName R2
SYMATTR Value {X}
SYMBOL voltage 608 -112 R0
WINDOW 123 0 0 Left 2
WINDOW 39 0 0 Left 2
SYMATTR InstName V2
SYMATTR Value 5V
TEXT -256 304 Left 2 !.step param X list 55 100 330 470
TEXT -216 344 Left 2 !.tran 50ms
