.MODEL IRF740 VDMOS(KP=3.1089 RS=0.0048 RD=0.4166 RG=0.91 VTO=4.5
+LAMBDA=0.001 CGDMAX=1218p CGDMIN=15p CGS=1300p TT=533n
+IS=2.41E-09 N=1.401 RB=0.013053 m=0.452 Vj=0.36 Cjo=1424.39pF)
+mfg=STmicro Qg=35n Ron=0.48 Vds=400)
